
OS:Version,
  {aaeb124b-318d-433b-9f5a-827fc4d69cda}, !- Handle
  3.2.1;                                  !- Version Identifier

OS:Building,
  {1e6d0081-d34f-4f4f-9330-f1847ad07ed2}, !- Handle
  Building 1,                             !- Name
  ,                                       !- Building Sector Type
  225,                                    !- North Axis {deg}
  ,                                       !- Nominal Floor to Floor Height {m}
  ,                                       !- Space Type Name
  ,                                       !- Default Construction Set Name
  ,                                       !- Default Schedule Set Name
  2,                                      !- Standards Number of Stories
  2,                                      !- Standards Number of Above Ground Stories
  ,                                       !- Standards Template
  singlefamilydetached,                   !- Standards Building Type
  1;                                      !- Standards Number of Living Units

OS:Facility,
  {f459c011-b344-4dd3-83ec-0aafd9ae4a97}; !- Handle

OS:Site,
  {1100c060-3b4d-4686-923f-4acefa51025e}, !- Handle
  Camp Mabry_TX_USA,                      !- Name
  30.32,                                  !- Latitude {deg}
  -97.77,                                 !- Longitude {deg}
  -6,                                     !- Time Zone {hr}
  198,                                    !- Elevation {m}
  Suburbs;                                !- Terrain

OS:SimulationControl,
  {32441e1e-f0ce-4f72-80d2-25fbf031efc1}, !- Handle
  ,                                       !- Do Zone Sizing Calculation
  ,                                       !- Do System Sizing Calculation
  ,                                       !- Do Plant Sizing Calculation
  No;                                     !- Run Simulation for Sizing Periods

OS:Sizing:Parameters,
  {7e5fe961-3bd9-4d7a-8419-61af7026c155}, !- Handle
  1.25,                                   !- Heating Sizing Factor
  1.15;                                   !- Cooling Sizing Factor

OS:Timestep,
  {3cbaee59-02a5-490c-9b11-56fe7636952e}, !- Handle
  4;                                      !- Number of Timesteps per Hour

OS:ShadowCalculation,
  {b3adc3a4-8092-42d5-af2a-65a6d89251c3}, !- Handle
  PolygonClipping,                        !- Shading Calculation Method
  ,                                       !- Shading Calculation Update Frequency Method
  20,                                     !- Shading Calculation Update Frequency
  200,                                    !- Maximum Figures in Shadow Overlap Calculations
  ,                                       !- Polygon Clipping Algorithm
  512,                                    !- Pixel Counting Resolution
  DetailedSkyDiffuseModeling,             !- Sky Diffuse Modeling Algorithm
  No,                                     !- Output External Shading Calculation Results
  No,                                     !- Disable Self-Shading Within Shading Zone Groups
  No;                                     !- Disable Self-Shading From Shading Zone Groups to Other Zones

OS:HeatBalanceAlgorithm,
  {4e384436-e99c-4add-b5e9-d94e36e54363}, !- Handle
  ConductionTransferFunction,             !- Algorithm
  200;                                    !- Surface Temperature Upper Limit {C}

OS:RunPeriod,
  {2e5be6aa-96f2-42d5-9460-3d433e3695f5}, !- Handle
  Run Period 1,                           !- Name
  1,                                      !- Begin Month
  1,                                      !- Begin Day of Month
  12,                                     !- End Month
  31,                                     !- End Day of Month
  ,                                       !- Use Weather File Holidays and Special Days
  ,                                       !- Use Weather File Daylight Saving Period
  ,                                       !- Apply Weekend Holiday Rule
  ,                                       !- Use Weather File Rain Indicators
  ,                                       !- Use Weather File Snow Indicators
  ;                                       !- Number of Times Runperiod to be Repeated

OS:LifeCycleCost:Parameters,
  {21961ddf-1188-4f3e-900f-65b73c9d9995}, !- Handle
  ,                                       !- Analysis Type
  ,                                       !- Discounting Convention
  ,                                       !- Inflation Approach
  ,                                       !- Real Discount Rate
  ,                                       !- Nominal Discount Rate
  ,                                       !- Inflation
  ,                                       !- Base Date Month
  ,                                       !- Base Date Year
  ,                                       !- Service Date Month
  ,                                       !- Service Date Year
  ;                                       !- Length of Study Period in Years

OS:SurfaceConvectionAlgorithm:Outside,
  {2ac2c399-5fdf-425f-932e-23a8e066fcfc}, !- Handle
  DOE-2;                                  !- Algorithm

OS:SurfaceConvectionAlgorithm:Inside,
  {e3c7f67b-88fd-48c3-b422-21c7ca9bec9b}, !- Handle
  TARP;                                   !- Algorithm

OS:ZoneCapacitanceMultiplier:ResearchSpecial,
  {96afea24-76cf-43b9-90e4-0a57c541abc2}, !- Handle
  ,                                       !- Temperature Capacity Multiplier
  15,                                     !- Humidity Capacity Multiplier
  ;                                       !- Carbon Dioxide Capacity Multiplier

OS:YearDescription,
  {a9181492-45f2-4306-a302-f969d953e7fc}, !- Handle
  2018,                                   !- Calendar Year
  ,                                       !- Day of Week for Start Day
  ;                                       !- Is Leap Year

OS:AdditionalProperties,
  {32d63b55-36bc-47d5-9432-ce4ec8fe0db4}, !- Handle
  {1e6d0081-d34f-4f4f-9330-f1847ad07ed2}, !- Object Name
  Building ID,                            !- Feature Name 1
  Integer,                                !- Feature Data Type 1
  40,                                     !- Feature Value 1
  num_occupants,                          !- Feature Name 2
  Integer,                                !- Feature Data Type 2
  2,                                      !- Feature Value 2
  Schedules Path,                         !- Feature Name 3
  String,                                 !- Feature Data Type 3
  /var/simdata/openstudio/run/schedules.csv, !- Feature Value 3
  Total Units Modeled,                    !- Feature Name 4
  Integer,                                !- Feature Data Type 4
  1,                                      !- Feature Value 4
  has_water_heater_flue,                  !- Feature Name 5
  Boolean,                                !- Feature Data Type 5
  false,                                  !- Feature Value 5
  has_fireplace_chimney,                  !- Feature Name 6
  Boolean,                                !- Feature Data Type 6
  false;                                  !- Feature Value 6

OS:WeatherFile,
  {3d86d3d5-6904-489a-b086-758a1c52a7c3}, !- Handle
  Camp Mabry,                             !- City
  TX,                                     !- State Province Region
  USA,                                    !- Country
  TMY3,                                   !- Data Source
  722544,                                 !- WMO Number
  30.32,                                  !- Latitude {deg}
  -97.77,                                 !- Longitude {deg}
  -6,                                     !- Time Zone {hr}
  198,                                    !- Elevation {m}
  /weather/G4804530.epw,                  !- Url
  FB60E24C;                               !- Checksum

OS:AdditionalProperties,
  {7d4614aa-fdc4-4c01-9f95-ca5239b47c74}, !- Handle
  {3d86d3d5-6904-489a-b086-758a1c52a7c3}, !- Object Name
  EPWHeaderCity,                          !- Feature Name 1
  String,                                 !- Feature Data Type 1
  Camp Mabry,                             !- Feature Value 1
  EPWHeaderState,                         !- Feature Name 2
  String,                                 !- Feature Data Type 2
  TX,                                     !- Feature Value 2
  EPWHeaderCountry,                       !- Feature Name 3
  String,                                 !- Feature Data Type 3
  USA,                                    !- Feature Value 3
  EPWHeaderDataSource,                    !- Feature Name 4
  String,                                 !- Feature Data Type 4
  TMY3,                                   !- Feature Value 4
  EPWHeaderStation,                       !- Feature Name 5
  String,                                 !- Feature Data Type 5
  722544,                                 !- Feature Value 5
  EPWHeaderLatitude,                      !- Feature Name 6
  Double,                                 !- Feature Data Type 6
  30.32,                                  !- Feature Value 6
  EPWHeaderLongitude,                     !- Feature Name 7
  Double,                                 !- Feature Data Type 7
  -97.769999999999996,                    !- Feature Value 7
  EPWHeaderTimezone,                      !- Feature Name 8
  Double,                                 !- Feature Data Type 8
  -6,                                     !- Feature Value 8
  EPWHeaderAltitude,                      !- Feature Name 9
  Double,                                 !- Feature Data Type 9
  649.6062992125984,                      !- Feature Value 9
  EPWHeaderLocalPressure,                 !- Feature Name 10
  Double,                                 !- Feature Data Type 10
  0.97637796158483325,                    !- Feature Value 10
  EPWHeaderRecordsPerHour,                !- Feature Name 11
  Double,                                 !- Feature Data Type 11
  1,                                      !- Feature Value 11
  EPWDataAnnualAvgDrybulb,                !- Feature Name 12
  Double,                                 !- Feature Data Type 12
  67.818253424657655,                     !- Feature Value 12
  EPWDataAnnualMinDrybulb,                !- Feature Name 13
  Double,                                 !- Feature Data Type 13
  15.079999999999998,                     !- Feature Value 13
  EPWDataAnnualMaxDrybulb,                !- Feature Name 14
  Double,                                 !- Feature Data Type 14
  102.92,                                 !- Feature Value 14
  EPWDataCDD50F,                          !- Feature Name 15
  Double,                                 !- Feature Data Type 15
  6850.7475000000013,                     !- Feature Value 15
  EPWDataCDD65F,                          !- Feature Name 16
  Double,                                 !- Feature Data Type 16
  2777.8424999999997,                     !- Feature Value 16
  EPWDataHDD50F,                          !- Feature Name 17
  Double,                                 !- Feature Data Type 17
  347.08500000000004,                     !- Feature Value 17
  EPWDataHDD65F,                          !- Feature Name 18
  Double,                                 !- Feature Data Type 18
  1749.1800000000005,                     !- Feature Value 18
  EPWDataAnnualAvgWindspeed,              !- Feature Name 19
  Double,                                 !- Feature Data Type 19
  3.6892922374426345,                     !- Feature Value 19
  EPWDataMonthlyAvgDrybulbs,              !- Feature Name 20
  String,                                 !- Feature Data Type 20
  50.00604838709678&#4453.389732142857156&#4460.26895161290326&#4469.46774999999997&#4474.54411290322591&#4481.04775&#4483.94354838709668&#4484.56266129032255&#4478.39874999999995&#4467.5814516129032&#4459.35925000000003&#4450.40112903225805, !- Feature Value 20
  EPWDataGroundMonthlyTemps,              !- Feature Name 21
  String,                                 !- Feature Data Type 21
  61.66174214686106&#4459.01876805619855&#4458.80710921274937&#4460.061335465231366&#4465.09635495913682&#4470.1079191962719&#4474.45267755058177&#4477.20497511088314&#4477.43879790592672&#4475.20026643870546&#4470.96630197330222&#4466.10847211450238, !- Feature Value 21
  EPWDataWSF,                             !- Feature Name 22
  Double,                                 !- Feature Data Type 22
  0.44,                                   !- Feature Value 22
  EPWDataMonthlyAvgDailyHighDrybulbs,     !- Feature Name 23
  String,                                 !- Feature Data Type 23
  59.807096774193546&#4462.831428571428575&#4471.56516129032258&#4478.93799999999999&#4483.10258064516131&#4491.33999999999997&#4493.08967741935484&#4495.12774193548388&#4488.65200000000002&#4478.56774193548387&#4470.616&#4462.58838709677419, !- Feature Value 23
  EPWDataMonthlyAvgDailyLowDrybulbs,      !- Feature Name 24
  String,                                 !- Feature Data Type 24
  41.423870967741934&#4443.995714285714286&#4449.29161290322581&#4460.812&#4466.73419354838708&#4472.76399999999998&#4476.10000000000001&#4475.47290322580645&#4469.81200000000001&#4457.66451612903226&#4449.47200000000001&#4440.01870967741936, !- Feature Value 24
  EPWDesignHeatingDrybulb,                !- Feature Name 25
  Double,                                 !- Feature Data Type 25
  31.280000000000001,                     !- Feature Value 25
  EPWDesignHeatingWindspeed,              !- Feature Name 26
  Double,                                 !- Feature Data Type 26
  9.9000000000000004,                     !- Feature Value 26
  EPWDesignCoolingDrybulb,                !- Feature Name 27
  Double,                                 !- Feature Data Type 27
  97.519999999999996,                     !- Feature Value 27
  EPWDesignCoolingWetbulb,                !- Feature Name 28
  Double,                                 !- Feature Data Type 28
  74.480000000000004,                     !- Feature Value 28
  EPWDesignCoolingHumidityRatio,          !- Feature Name 29
  Double,                                 !- Feature Data Type 29
  0.013284787681339555,                   !- Feature Value 29
  EPWDesignCoolingWindspeed,              !- Feature Name 30
  Double,                                 !- Feature Data Type 30
  3.7000000000000002,                     !- Feature Value 30
  EPWDesignDailyTemperatureRange,         !- Feature Name 31
  Double,                                 !- Feature Data Type 31
  21.059999999999999,                     !- Feature Value 31
  EPWDesignDehumidDrybulb,                !- Feature Name 32
  Double,                                 !- Feature Data Type 32
  80.240000000000009,                     !- Feature Value 32
  EPWDesignDehumidHumidityRatio,          !- Feature Name 33
  Double,                                 !- Feature Data Type 33
  0.018988577812184642,                   !- Feature Value 33
  EPWDesignCoolingDirectNormal,           !- Feature Name 34
  Double,                                 !- Feature Data Type 34
  955,                                    !- Feature Value 34
  EPWDesignCoolingDiffuseHorizontal,      !- Feature Name 35
  Double,                                 !- Feature Data Type 35
  98;                                     !- Feature Value 35

OS:ClimateZones,
  {95b3d7f8-970b-4113-bd1e-613235c147b7}, !- Handle
  Building America,                       !- Climate Zone Institution Name 1
  ,                                       !- Climate Zone Document Name 1
  0,                                      !- Climate Zone Document Year 1
  Hot-Humid;                              !- Climate Zone Value 1

OS:Site:WaterMainsTemperature,
  {660fa38e-b5bf-43db-b8e6-da17642de759}, !- Handle
  Correlation,                            !- Calculation Method
  ,                                       !- Temperature Schedule Name
  19.8990296803654,                       !- Annual Average Outdoor Air Temperature {C}
  19.1981182795699;                       !- Maximum Difference In Monthly Average Outdoor Air Temperatures {deltaC}

OS:RunPeriodControl:DaylightSavingTime,
  {3388ccdc-95ab-4eeb-b0fd-83b97286da81}, !- Handle
  3/10,                                   !- Start Date
  11/3;                                   !- End Date

OS:Site:GroundTemperature:Deep,
  {f71b87c4-ba24-44c7-a74a-01defa1abcf3}, !- Handle
  19.8990296803654,                       !- January Deep Ground Temperature {C}
  19.8990296803654,                       !- February Deep Ground Temperature {C}
  19.8990296803654,                       !- March Deep Ground Temperature {C}
  19.8990296803654,                       !- April Deep Ground Temperature {C}
  19.8990296803654,                       !- May Deep Ground Temperature {C}
  19.8990296803654,                       !- June Deep Ground Temperature {C}
  19.8990296803654,                       !- July Deep Ground Temperature {C}
  19.8990296803654,                       !- August Deep Ground Temperature {C}
  19.8990296803654,                       !- September Deep Ground Temperature {C}
  19.8990296803654,                       !- October Deep Ground Temperature {C}
  19.8990296803654,                       !- November Deep Ground Temperature {C}
  19.8990296803654;                       !- December Deep Ground Temperature {C}

OS:ThermalZone,
  {0e474409-4ad2-4564-8cbf-f4f2961211db}, !- Handle
  living zone,                            !- Name
  ,                                       !- Multiplier
  ,                                       !- Ceiling Height {m}
  ,                                       !- Volume {m3}
  ,                                       !- Floor Area {m2}
  ,                                       !- Zone Inside Convection Algorithm
  ,                                       !- Zone Outside Convection Algorithm
  ,                                       !- Zone Conditioning Equipment List Name
  {061eb20c-541f-450f-b07f-1cb1bf562117}, !- Zone Air Inlet Port List
  {ee5caa63-8168-4027-8d0a-6d412beb8289}, !- Zone Air Exhaust Port List
  {c97b2714-58c0-4ec3-b99a-f8ace5bdecca}, !- Zone Air Node Name
  {911e0264-c276-43d9-8b9c-873a041835ce}, !- Zone Return Air Port List
  ,                                       !- Primary Daylighting Control Name
  ,                                       !- Fraction of Zone Controlled by Primary Daylighting Control
  ,                                       !- Secondary Daylighting Control Name
  ,                                       !- Fraction of Zone Controlled by Secondary Daylighting Control
  ,                                       !- Illuminance Map Name
  ,                                       !- Group Rendering Name
  {1783db04-033d-485f-a328-713beb40eb8a}, !- Thermostat Name
  No;                                     !- Use Ideal Air Loads

OS:Node,
  {a11a4685-cce9-46ab-bd4d-4d8568c936e6}, !- Handle
  Node 1,                                 !- Name
  {c97b2714-58c0-4ec3-b99a-f8ace5bdecca}, !- Inlet Port
  ;                                       !- Outlet Port

OS:Connection,
  {c97b2714-58c0-4ec3-b99a-f8ace5bdecca}, !- Handle
  {0e474409-4ad2-4564-8cbf-f4f2961211db}, !- Source Object
  11,                                     !- Outlet Port
  {a11a4685-cce9-46ab-bd4d-4d8568c936e6}, !- Target Object
  2;                                      !- Inlet Port

OS:PortList,
  {061eb20c-541f-450f-b07f-1cb1bf562117}, !- Handle
  {0e474409-4ad2-4564-8cbf-f4f2961211db}, !- HVAC Component
  {4c93cbae-c2ff-4b49-b343-fe8612b6d68d}, !- Port 1
  {08c8bc1a-cf4b-46d9-9a2c-f271994cb5f7}; !- Port 2

OS:PortList,
  {ee5caa63-8168-4027-8d0a-6d412beb8289}, !- Handle
  {0e474409-4ad2-4564-8cbf-f4f2961211db}; !- HVAC Component

OS:PortList,
  {911e0264-c276-43d9-8b9c-873a041835ce}, !- Handle
  {0e474409-4ad2-4564-8cbf-f4f2961211db}, !- HVAC Component
  {3b31645e-c487-489f-8120-f645fa0c38e6}, !- Port 1
  {7ef62854-4303-4d91-8053-1d3b894ee942}; !- Port 2

OS:Sizing:Zone,
  {28925172-129c-462f-a6e9-58203e28e57b}, !- Handle
  {0e474409-4ad2-4564-8cbf-f4f2961211db}, !- Zone or ZoneList Name
  SupplyAirTemperature,                   !- Zone Cooling Design Supply Air Temperature Input Method
  14,                                     !- Zone Cooling Design Supply Air Temperature {C}
  11.11,                                  !- Zone Cooling Design Supply Air Temperature Difference {deltaC}
  SupplyAirTemperature,                   !- Zone Heating Design Supply Air Temperature Input Method
  40,                                     !- Zone Heating Design Supply Air Temperature {C}
  11.11,                                  !- Zone Heating Design Supply Air Temperature Difference {deltaC}
  0.0085,                                 !- Zone Cooling Design Supply Air Humidity Ratio {kg-H2O/kg-air}
  0.008,                                  !- Zone Heating Design Supply Air Humidity Ratio {kg-H2O/kg-air}
  ,                                       !- Zone Heating Sizing Factor
  ,                                       !- Zone Cooling Sizing Factor
  DesignDay,                              !- Cooling Design Air Flow Method
  ,                                       !- Cooling Design Air Flow Rate {m3/s}
  ,                                       !- Cooling Minimum Air Flow per Zone Floor Area {m3/s-m2}
  ,                                       !- Cooling Minimum Air Flow {m3/s}
  ,                                       !- Cooling Minimum Air Flow Fraction
  DesignDay,                              !- Heating Design Air Flow Method
  ,                                       !- Heating Design Air Flow Rate {m3/s}
  ,                                       !- Heating Maximum Air Flow per Zone Floor Area {m3/s-m2}
  ,                                       !- Heating Maximum Air Flow {m3/s}
  ,                                       !- Heating Maximum Air Flow Fraction
  No,                                     !- Account for Dedicated Outdoor Air System
  NeutralSupplyAir,                       !- Dedicated Outdoor Air System Control Strategy
  autosize,                               !- Dedicated Outdoor Air Low Setpoint Temperature for Design {C}
  autosize;                               !- Dedicated Outdoor Air High Setpoint Temperature for Design {C}

OS:ZoneHVAC:EquipmentList,
  {b3c6562a-a9a8-4706-ae32-c0c1bac40ac3}, !- Handle
  Zone HVAC Equipment List 1,             !- Name
  {0e474409-4ad2-4564-8cbf-f4f2961211db}, !- Thermal Zone
  SequentialLoad,                         !- Load Distribution Scheme
  {a417dd35-9dfd-4c21-b12c-5d77b3bae83e}, !- Zone Equipment 1
  1,                                      !- Zone Equipment Cooling Sequence 1
  1,                                      !- Zone Equipment Heating or No-Load Sequence 1
  ,                                       !- Zone Equipment Sequential Cooling Fraction Schedule Name 1
  ,                                       !- Zone Equipment Sequential Heating Fraction Schedule Name 1
  {a431b86d-ffda-4cc5-a6f4-67f782a65212}, !- Zone Equipment 2
  2,                                      !- Zone Equipment Cooling Sequence 2
  2,                                      !- Zone Equipment Heating or No-Load Sequence 2
  ,                                       !- Zone Equipment Sequential Cooling Fraction Schedule Name 2
  ;                                       !- Zone Equipment Sequential Heating Fraction Schedule Name 2

OS:ThermalZone,
  {0d3b4531-f561-418d-9498-b4be5f46e137}, !- Handle
  garage zone,                            !- Name
  ,                                       !- Multiplier
  ,                                       !- Ceiling Height {m}
  ,                                       !- Volume {m3}
  ,                                       !- Floor Area {m2}
  ,                                       !- Zone Inside Convection Algorithm
  ,                                       !- Zone Outside Convection Algorithm
  ,                                       !- Zone Conditioning Equipment List Name
  {e8dc3599-971e-4bb4-8849-5580c575a13c}, !- Zone Air Inlet Port List
  {1afaf9a6-f0e5-4a8c-9566-6ce8aa84b30a}, !- Zone Air Exhaust Port List
  {220ffb10-166f-48c8-96a2-be82d30f9fd3}, !- Zone Air Node Name
  {b957993b-f693-4428-a9ed-7ae7111f3cbb}, !- Zone Return Air Port List
  ,                                       !- Primary Daylighting Control Name
  ,                                       !- Fraction of Zone Controlled by Primary Daylighting Control
  ,                                       !- Secondary Daylighting Control Name
  ,                                       !- Fraction of Zone Controlled by Secondary Daylighting Control
  ,                                       !- Illuminance Map Name
  ,                                       !- Group Rendering Name
  ,                                       !- Thermostat Name
  No;                                     !- Use Ideal Air Loads

OS:Node,
  {56287973-a5c0-4436-96ca-03b09de28f29}, !- Handle
  Node 2,                                 !- Name
  {220ffb10-166f-48c8-96a2-be82d30f9fd3}, !- Inlet Port
  ;                                       !- Outlet Port

OS:Connection,
  {220ffb10-166f-48c8-96a2-be82d30f9fd3}, !- Handle
  {0d3b4531-f561-418d-9498-b4be5f46e137}, !- Source Object
  11,                                     !- Outlet Port
  {56287973-a5c0-4436-96ca-03b09de28f29}, !- Target Object
  2;                                      !- Inlet Port

OS:PortList,
  {e8dc3599-971e-4bb4-8849-5580c575a13c}, !- Handle
  {0d3b4531-f561-418d-9498-b4be5f46e137}; !- HVAC Component

OS:PortList,
  {1afaf9a6-f0e5-4a8c-9566-6ce8aa84b30a}, !- Handle
  {0d3b4531-f561-418d-9498-b4be5f46e137}; !- HVAC Component

OS:PortList,
  {b957993b-f693-4428-a9ed-7ae7111f3cbb}, !- Handle
  {0d3b4531-f561-418d-9498-b4be5f46e137}; !- HVAC Component

OS:Sizing:Zone,
  {b6049624-9900-4435-a2f9-75fc9ff99a10}, !- Handle
  {0d3b4531-f561-418d-9498-b4be5f46e137}, !- Zone or ZoneList Name
  SupplyAirTemperature,                   !- Zone Cooling Design Supply Air Temperature Input Method
  14,                                     !- Zone Cooling Design Supply Air Temperature {C}
  11.11,                                  !- Zone Cooling Design Supply Air Temperature Difference {deltaC}
  SupplyAirTemperature,                   !- Zone Heating Design Supply Air Temperature Input Method
  40,                                     !- Zone Heating Design Supply Air Temperature {C}
  11.11,                                  !- Zone Heating Design Supply Air Temperature Difference {deltaC}
  0.0085,                                 !- Zone Cooling Design Supply Air Humidity Ratio {kg-H2O/kg-air}
  0.008,                                  !- Zone Heating Design Supply Air Humidity Ratio {kg-H2O/kg-air}
  ,                                       !- Zone Heating Sizing Factor
  ,                                       !- Zone Cooling Sizing Factor
  DesignDay,                              !- Cooling Design Air Flow Method
  ,                                       !- Cooling Design Air Flow Rate {m3/s}
  ,                                       !- Cooling Minimum Air Flow per Zone Floor Area {m3/s-m2}
  ,                                       !- Cooling Minimum Air Flow {m3/s}
  ,                                       !- Cooling Minimum Air Flow Fraction
  DesignDay,                              !- Heating Design Air Flow Method
  ,                                       !- Heating Design Air Flow Rate {m3/s}
  ,                                       !- Heating Maximum Air Flow per Zone Floor Area {m3/s-m2}
  ,                                       !- Heating Maximum Air Flow {m3/s}
  ,                                       !- Heating Maximum Air Flow Fraction
  No,                                     !- Account for Dedicated Outdoor Air System
  NeutralSupplyAir,                       !- Dedicated Outdoor Air System Control Strategy
  autosize,                               !- Dedicated Outdoor Air Low Setpoint Temperature for Design {C}
  autosize;                               !- Dedicated Outdoor Air High Setpoint Temperature for Design {C}

OS:ZoneHVAC:EquipmentList,
  {343c9522-09f3-478a-8739-d307799ef2ab}, !- Handle
  Zone HVAC Equipment List 2,             !- Name
  {0d3b4531-f561-418d-9498-b4be5f46e137}; !- Thermal Zone

OS:Space,
  {b861f714-9363-4f87-9eff-46a3d96b5fea}, !- Handle
  garage space,                           !- Name
  {37bc26da-f4bf-4466-b1af-61c0d79e74d2}, !- Space Type Name
  ,                                       !- Default Construction Set Name
  ,                                       !- Default Schedule Set Name
  -0,                                     !- Direction of Relative North {deg}
  0,                                      !- X Origin {m}
  0,                                      !- Y Origin {m}
  0,                                      !- Z Origin {m}
  ,                                       !- Building Story Name
  {0d3b4531-f561-418d-9498-b4be5f46e137}; !- Thermal Zone Name

OS:Surface,
  {73ff2757-01e8-4faf-a52c-22c917e29e7c}, !- Handle
  Surface 1,                              !- Name
  Floor,                                  !- Surface Type
  {abf841ee-2aa7-4a7e-a023-c9a531a1a6ad}, !- Construction Name
  {b861f714-9363-4f87-9eff-46a3d96b5fea}, !- Space Name
  Foundation,                             !- Outside Boundary Condition
  {fde9076f-a0f1-42fb-85a0-68ee09db1ab2}, !- Outside Boundary Condition Object
  NoSun,                                  !- Sun Exposure
  NoWind,                                 !- Wind Exposure
  ,                                       !- View Factor to Ground
  ,                                       !- Number of Vertices
  15.202049737563, -3.6576, 0,            !- X,Y,Z Vertex 1 {m}
  15.202049737563, 3.6576, 0,             !- X,Y,Z Vertex 2 {m}
  26.174849737563, 3.6576, 0,             !- X,Y,Z Vertex 3 {m}
  26.174849737563, -3.6576, 0;            !- X,Y,Z Vertex 4 {m}
