
Version,
    9.6;                      !- Version Identifier

SimulationControl,
    No,                       !- Do Zone Sizing Calculation
    No,                       !- Do System Sizing Calculation
    No,                       !- Do Plant Sizing Calculation
    No,                       !- Run Simulation for Sizing Periods
    Yes,                      !- Run Simulation for Weather File Run Periods
    ,                         !- Do HVAC Sizing Simulation for Sizing Periods
    ;                         !- Maximum Number of HVAC Sizing Simulation Passes

Building,
    Building 1,               !- Name
    90,                       !- North Axis
    Suburbs,                  !- Terrain
    ,                         !- Loads Convergence Tolerance Value
    ,                         !- Temperature Convergence Tolerance Value
    ,                         !- Solar Distribution
    ,                         !- Maximum Number of Warmup Days
    ;                         !- Minimum Number of Warmup Days

ShadowCalculation,
    PolygonClipping,          !- Shading Calculation Method
    Periodic,                 !- Shading Calculation Update Frequency Method
    20,                       !- Shading Calculation Update Frequency
    200,                      !- Maximum Figures in Shadow Overlap Calculations
    SutherlandHodgman,        !- Polygon Clipping Algorithm
    512,                      !- Pixel Counting Resolution
    DetailedSkyDiffuseModeling,    !- Sky Diffuse Modeling Algorithm
    No,                       !- Output External Shading Calculation Results
    No,                       !- Disable SelfShading Within Shading Zone Groups
    No;                       !- Disable SelfShading From Shading Zone Groups to Other Zones

SurfaceConvectionAlgorithm:Inside,
    TARP;                     !- Algorithm

SurfaceConvectionAlgorithm:Outside,
    DOE-2;                    !- Algorithm

HeatBalanceAlgorithm,
    ConductionTransferFunction,    !- Algorithm
    200;                      !- Surface Temperature Upper Limit

ZoneCapacitanceMultiplier:ResearchSpecial,
    Zone Capacitance Multiplier Research Special,    !- Name
    ,                         !- Zone or ZoneList Name
    ,                         !- Temperature Capacity Multiplier
    15,                       !- Humidity Capacity Multiplier
    ,                         !- Carbon Dioxide Capacity Multiplier
    ;                         !- Generic Contaminant Capacity Multiplier

TIMESTEP,
    1;                        !- Number of Timesteps per Hour

Site:Location,
    Camp Mabry_TX_USA,        !- Name
    30.32,                    !- Latitude
    -97.77,                   !- Longitude
    -6,                       !- Time Zone
    198;                      !- Elevation

RunPeriod,
    Run Period 1,             !- Name
    1,                        !- Begin Month
    1,                        !- Begin Day of Month
    2018,                     !- Begin Year
    12,                       !- End Month
    31,                       !- End Day of Month
    2018,                     !- End Year
    Monday,                   !- Day of Week for Start Day
    No,                       !- Use Weather File Holidays and Special Days
    No,                       !- Use Weather File Daylight Saving Period
    No,                       !- Apply Weekend Holiday Rule
    Yes,                      !- Use Weather File Rain Indicators
    Yes;                      !- Use Weather File Snow Indicators

Site:GroundTemperature:Deep,
    19.8990296803654,         !- January Deep Ground Temperature
    19.8990296803654,         !- February Deep Ground Temperature
    19.8990296803654,         !- March Deep Ground Temperature
    19.8990296803654,         !- April Deep Ground Temperature
    19.8990296803654,         !- May Deep Ground Temperature
    19.8990296803654,         !- June Deep Ground Temperature
    19.8990296803654,         !- July Deep Ground Temperature
    19.8990296803654,         !- August Deep Ground Temperature
    19.8990296803654,         !- September Deep Ground Temperature
    19.8990296803654,         !- October Deep Ground Temperature
    19.8990296803654,         !- November Deep Ground Temperature
    19.8990296803654;         !- December Deep Ground Temperature

Site:WaterMainsTemperature,
    Correlation,              !- Calculation Method
    ,                         !- Temperature Schedule Name
    19.8990296803654,         !- Annual Average Outdoor Air Temperature
    19.1981182795699;         !- Maximum Difference In Monthly Average Outdoor Air Temperatures

ScheduleTypeLimits,
    Fractional,               !- Name
    0,                        !- Lower Limit Value
    1,                        !- Upper Limit Value
    Continuous;               !- Numeric Type

ScheduleTypeLimits,
    living zone Thermostat Schedule Type Limits,    !- Name
    0,                        !- Lower Limit Value
    4,                        !- Upper Limit Value
    DISCRETE;                 !- Numeric Type

ScheduleTypeLimits,
    Temperature,              !- Name
    ,                         !- Lower Limit Value
    ,                         !- Upper Limit Value
    Continuous,               !- Numeric Type
    temperature;              !- Unit Type

ScheduleTypeLimits,
    ActivityLevel,            !- Name
    0,                        !- Lower Limit Value
    ,                         !- Upper Limit Value
    Continuous,               !- Numeric Type
    activitylevel;            !- Unit Type

ScheduleTypeLimits,
    Fractional 1,             !- Name
    0,                        !- Lower Limit Value
    1,                        !- Upper Limit Value
    Continuous;               !- Numeric Type

ScheduleTypeLimits,
    OnOff,                    !- Name
    0,                        !- Lower Limit Value
    1,                        !- Upper Limit Value
    Discrete,                 !- Numeric Type
    availability;             !- Unit Type

ScheduleTypeLimits,
    OnOff 1,                  !- Name
    0,                        !- Lower Limit Value
    1,                        !- Upper Limit Value
    Discrete,                 !- Numeric Type
    availability;             !- Unit Type

SCHEDULETYPELIMITS,
    other equipment hvac power,    !- Name
    ,                         !- Lower Limit Value
    ,                         !- Upper Limit Value
    Continuous,               !- Numeric Type
    Dimensionless;            !- Unit Type

Schedule:Day:Interval,
    res refrig schedule allday1,    !- Name
    Fractional,               !- Schedule Type Limits Name
    No,                       !- Interpolate to Timestep
    01:00,                    !- Time 1
    0.610948905109489,        !- Value Until Time 1
    02:00,                    !- Time 2
    0.595675182481752,        !- Value Until Time 2
    03:00,                    !- Time 3
    0.580401459854014,        !- Value Until Time 3
    04:00,                    !- Time 4
    0.565127737226277,        !- Value Until Time 4
    06:00,                    !- Time 5
    0.54985401459854,         !- Value Until Time 5
    07:00,                    !- Time 6
    0.580401459854014,        !- Value Until Time 6
    08:00,                    !- Time 7
    0.610948905109489,        !- Value Until Time 7
    10:00,                    !- Time 8
    0.626222627737226,        !- Value Until Time 8
    12:00,                    !- Time 9
    0.610948905109489,        !- Value Until Time 9
    15:00,                    !- Time 10
    0.641496350364963,        !- Value Until Time 10
    16:00,                    !- Time 11
    0.626222627737226,        !- Value Until Time 11
    17:00,                    !- Time 12
    0.672043795620438,        !- Value Until Time 12
    18:00,                    !- Time 13
    0.733138686131387,        !- Value Until Time 13
    19:00,                    !- Time 14
    0.763686131386861,        !- Value Until Time 14
    20:00,                    !- Time 15
    0.733138686131387,        !- Value Until Time 15
    21:00,                    !- Time 16
    0.717864963503649,        !- Value Until Time 16
    22:00,                    !- Time 17
    0.702591240875912,        !- Value Until Time 17
    23:00,                    !- Time 18
    0.672043795620438,        !- Value Until Time 18
    24:00,                    !- Time 19
    0.626222627737226;        !- Value Until Time 19

Schedule:Day:Interval,
    res refrig schedule allday2,    !- Name
    Fractional,               !- Schedule Type Limits Name
    No,                       !- Interpolate to Timestep
    01:00,                    !- Time 1
    0.60948905109489,         !- Value Until Time 1
    02:00,                    !- Time 2
    0.594251824817518,        !- Value Until Time 2
    03:00,                    !- Time 3
    0.579014598540146,        !- Value Until Time 3
    04:00,                    !- Time 4
    0.563777372262774,        !- Value Until Time 4
    06:00,                    !- Time 5
    0.548540145985401,        !- Value Until Time 5
    07:00,                    !- Time 6
    0.579014598540146,        !- Value Until Time 6
    08:00,                    !- Time 7
    0.60948905109489,         !- Value Until Time 7
    10:00,                    !- Time 8
    0.624726277372263,        !- Value Until Time 8
    12:00,                    !- Time 9
    0.60948905109489,         !- Value Until Time 9
    15:00,                    !- Time 10
    0.639963503649635,        !- Value Until Time 10
    16:00,                    !- Time 11
    0.624726277372263,        !- Value Until Time 11
    17:00,                    !- Time 12
    0.670437956204379,        !- Value Until Time 12
    18:00,                    !- Time 13
    0.731386861313868,        !- Value Until Time 13
    19:00,                    !- Time 14
    0.761861313868613,        !- Value Until Time 14
    20:00,                    !- Time 15
    0.731386861313868,        !- Value Until Time 15
    21:00,                    !- Time 16
    0.716149635036496,        !- Value Until Time 16
    22:00,                    !- Time 17
    0.700912408759124,        !- Value Until Time 17
    23:00,                    !- Time 18
    0.670437956204379,        !- Value Until Time 18
    24:00,                    !- Time 19
    0.624726277372263;        !- Value Until Time 19

Schedule:Day:Interval,
    res refrig schedule allday3,    !- Name
    Fractional,               !- Schedule Type Limits Name
    No,                       !- Interpolate to Timestep
    01:00,                    !- Time 1
    0.791240875912409,        !- Value Until Time 1
    02:00,                    !- Time 2
    0.771459854014598,        !- Value Until Time 2
    03:00,                    !- Time 3
    0.751678832116788,        !- Value Until Time 3
    04:00,                    !- Time 4
    0.731897810218978,        !- Value Until Time 4
    06:00,                    !- Time 5
    0.712116788321168,        !- Value Until Time 5
    07:00,                    !- Time 6
    0.751678832116788,        !- Value Until Time 6
    08:00,                    !- Time 7
    0.791240875912409,        !- Value Until Time 7
    10:00,                    !- Time 8
    0.811021897810219,        !- Value Until Time 8
    12:00,                    !- Time 9
    0.791240875912409,        !- Value Until Time 9
    15:00,                    !- Time 10
    0.830802919708029,        !- Value Until Time 10
    16:00,                    !- Time 11
    0.811021897810219,        !- Value Until Time 11
    17:00,                    !- Time 12
    0.87036496350365,         !- Value Until Time 12
    18:00,                    !- Time 13
    0.949489051094891,        !- Value Until Time 13
    19:00,                    !- Time 14
    0.989051094890511,        !- Value Until Time 14
    20:00,                    !- Time 15
    0.949489051094891,        !- Value Until Time 15
    21:00,                    !- Time 16
    0.92970802919708,         !- Value Until Time 16
    22:00,                    !- Time 17
    0.90992700729927,         !- Value Until Time 17
    23:00,                    !- Time 18
    0.87036496350365,         !- Value Until Time 18
    24:00,                    !- Time 19
    0.811021897810219;        !- Value Until Time 19

Schedule:Day:Interval,
    res refrig schedule allday4,    !- Name
    Fractional,               !- Schedule Type Limits Name
    No,                       !- Interpolate to Timestep
    01:00,                    !- Time 1
    0.791240875912409,        !- Value Until Time 1
    02:00,                    !- Time 2
    0.771459854014598,        !- Value Until Time 2
    03:00,                    !- Time 3
    0.751678832116788,        !- Value Until Time 3
    04:00,                    !- Time 4
    0.731897810218978,        !- Value Until Time 4
    06:00,                    !- Time 5
    0.712116788321168,        !- Value Until Time 5
    07:00,                    !- Time 6
    0.751678832116788,        !- Value Until Time 6
    08:00,                    !- Time 7
    0.791240875912409,        !- Value Until Time 7
    10:00,                    !- Time 8
    0.811021897810219,        !- Value Until Time 8
    12:00,                    !- Time 9
    0.791240875912409,        !- Value Until Time 9
    15:00,                    !- Time 10
    0.830802919708029,        !- Value Until Time 10
    16:00,                    !- Time 11
    0.811021897810219,        !- Value Until Time 11
    17:00,                    !- Time 12
    0.87036496350365,         !- Value Until Time 12
    18:00,                    !- Time 13
    0.949489051094891,        !- Value Until Time 13
    19:00,                    !- Time 14
    0.989051094890511,        !- Value Until Time 14
    20:00,                    !- Time 15
    0.949489051094891,        !- Value Until Time 15
    21:00,                    !- Time 16
    0.92970802919708,         !- Value Until Time 16
    22:00,                    !- Time 17
    0.90992700729927,         !- Value Until Time 17
    23:00,                    !- Time 18
    0.87036496350365,         !- Value Until Time 18
    24:00,                    !- Time 19
    0.811021897810219;        !- Value Until Time 19

Schedule:Day:Interval,
    res refrig schedule allday5,    !- Name
    Fractional,               !- Schedule Type Limits Name
    No,                       !- Interpolate to Timestep
    01:00,                    !- Time 1
    0.791240875912409,        !- Value Until Time 1
    02:00,                    !- Time 2
    0.771459854014598,        !- Value Until Time 2
    03:00,                    !- Time 3
    0.751678832116788,        !- Value Until Time 3
    04:00,                    !- Time 4
    0.731897810218978,        !- Value Until Time 4
    06:00,                    !- Time 5
    0.712116788321168,        !- Value Until Time 5
    07:00,                    !- Time 6
    0.751678832116788,        !- Value Until Time 6
    08:00,                    !- Time 7
    0.791240875912409,        !- Value Until Time 7
    10:00,                    !- Time 8
    0.811021897810219,        !- Value Until Time 8
    12:00,                    !- Time 9
    0.791240875912409,        !- Value Until Time 9
    15:00,                    !- Time 10
    0.830802919708029,        !- Value Until Time 10
    16:00,                    !- Time 11
    0.811021897810219,        !- Value Until Time 11
    17:00,                    !- Time 12
    0.87036496350365,         !- Value Until Time 12
    18:00,                    !- Time 13
    0.949489051094891,        !- Value Until Time 13
    19:00,                    !- Time 14
    0.989051094890511,        !- Value Until Time 14
    20:00,                    !- Time 15
    0.949489051094891,        !- Value Until Time 15
    21:00,                    !- Time 16
    0.92970802919708,         !- Value Until Time 16
    22:00,                    !- Time 17
    0.90992700729927,         !- Value Until Time 17
    23:00,                    !- Time 18
    0.87036496350365,         !- Value Until Time 18
    24:00,                    !- Time 19
    0.811021897810219;        !- Value Until Time 19

Schedule:Day:Interval,
    res refrig schedule allday6,    !- Name
    Fractional,               !- Schedule Type Limits Name
    No,                       !- Interpolate to Timestep
    01:00,                    !- Time 1
    0.8,                      !- Value Until Time 1
    02:00,                    !- Time 2
    0.78,                     !- Value Until Time 2
    03:00,                    !- Time 3
    0.76,                     !- Value Until Time 3
    04:00,                    !- Time 4
    0.74,                     !- Value Until Time 4
    06:00,                    !- Time 5
    0.72,                     !- Value Until Time 5
    07:00,                    !- Time 6
    0.76,                     !- Value Until Time 6
    08:00,                    !- Time 7
    0.8,                      !- Value Until Time 7
    10:00,                    !- Time 8
    0.82,                     !- Value Until Time 8
    12:00,                    !- Time 9
    0.8,                      !- Value Until Time 9
    15:00,                    !- Time 10
    0.84,                     !- Value Until Time 10
    16:00,                    !- Time 11
    0.82,                     !- Value Until Time 11
    17:00,                    !- Time 12
    0.88,                     !- Value Until Time 12
    18:00,                    !- Time 13
    0.96,                     !- Value Until Time 13
    19:00,                    !- Time 14
    1,                        !- Value Until Time 14
    20:00,                    !- Time 15
    0.96,                     !- Value Until Time 15
    21:00,                    !- Time 16
    0.94,                     !- Value Until Time 16
    22:00,                    !- Time 17
    0.92,                     !- Value Until Time 17
    23:00,                    !- Time 18
    0.88,                     !- Value Until Time 18
    24:00,                    !- Time 19
    0.82;                     !- Value Until Time 19

Schedule:Day:Interval,
    res refrig schedule allday7,    !- Name
    Fractional,               !- Schedule Type Limits Name
    No,                       !- Interpolate to Timestep
    01:00,                    !- Time 1
    0.8,                      !- Value Until Time 1
    02:00,                    !- Time 2
    0.78,                     !- Value Until Time 2
    03:00,                    !- Time 3
    0.76,                     !- Value Until Time 3
    04:00,                    !- Time 4
    0.74,                     !- Value Until Time 4
    06:00,                    !- Time 5
    0.72,                     !- Value Until Time 5
    07:00,                    !- Time 6
    0.76,                     !- Value Until Time 6
    08:00,                    !- Time 7
    0.8,                      !- Value Until Time 7
    10:00,                    !- Time 8
    0.82,                     !- Value Until Time 8
    12:00,                    !- Time 9
    0.8,                      !- Value Until Time 9
    15:00,                    !- Time 10
    0.84,                     !- Value Until Time 10
    16:00,                    !- Time 11
    0.82,                     !- Value Until Time 11
    17:00,                    !- Time 12
    0.88,                     !- Value Until Time 12
    18:00,                    !- Time 13
    0.96,                     !- Value Until Time 13
    19:00,                    !- Time 14
    1,                        !- Value Until Time 14
    20:00,                    !- Time 15
    0.96,                     !- Value Until Time 15
    21:00,                    !- Time 16
    0.94,                     !- Value Until Time 16
    22:00,                    !- Time 17
    0.92,                     !- Value Until Time 17
    23:00,                    !- Time 18
    0.88,                     !- Value Until Time 18
    24:00,                    !- Time 19
    0.82;                     !- Value Until Time 19

Schedule:Day:Interval,
    res refrig schedule allday8,    !- Name
    Fractional,               !- Schedule Type Limits Name
    No,                       !- Interpolate to Timestep
    01:00,                    !- Time 1
    0.8,                      !- Value Until Time 1
    02:00,                    !- Time 2
    0.78,                     !- Value Until Time 2
    03:00,                    !- Time 3
    0.76,                     !- Value Until Time 3
    04:00,                    !- Time 4
    0.74,                     !- Value Until Time 4
    06:00,                    !- Time 5
    0.72,                     !- Value Until Time 5
    07:00,                    !- Time 6
    0.76,                     !- Value Until Time 6
    08:00,                    !- Time 7
    0.8,                      !- Value Until Time 7
    10:00,                    !- Time 8
    0.82,                     !- Value Until Time 8
    12:00,                    !- Time 9
    0.8,                      !- Value Until Time 9
    15:00,                    !- Time 10
    0.84,                     !- Value Until Time 10
    16:00,                    !- Time 11
    0.82,                     !- Value Until Time 11
    17:00,                    !- Time 12
    0.88,                     !- Value Until Time 12
    18:00,                    !- Time 13
    0.96,                     !- Value Until Time 13
    19:00,                    !- Time 14
    1,                        !- Value Until Time 14
    20:00,                    !- Time 15
    0.96,                     !- Value Until Time 15
    21:00,                    !- Time 16
    0.94,                     !- Value Until Time 16
    22:00,                    !- Time 17
    0.92,                     !- Value Until Time 17
    23:00,                    !- Time 18
    0.88,                     !- Value Until Time 18
    24:00,                    !- Time 19
    0.82;                     !- Value Until Time 19

Schedule:Day:Interval,
    res refrig schedule allday9,    !- Name
    Fractional,               !- Schedule Type Limits Name
    No,                       !- Interpolate to Timestep
    01:00,                    !- Time 1
    0.8,                      !- Value Until Time 1
    02:00,                    !- Time 2
    0.78,                     !- Value Until Time 2
    03:00,                    !- Time 3
    0.76,                     !- Value Until Time 3
    04:00,                    !- Time 4
    0.74,                     !- Value Until Time 4
    06:00,                    !- Time 5
    0.72,                     !- Value Until Time 5
    07:00,                    !- Time 6
    0.76,                     !- Value Until Time 6
    08:00,                    !- Time 7
    0.8,                      !- Value Until Time 7
    10:00,                    !- Time 8
    0.82,                     !- Value Until Time 8
    12:00,                    !- Time 9
    0.8,                      !- Value Until Time 9
    15:00,                    !- Time 10
    0.84,                     !- Value Until Time 10
    16:00,                    !- Time 11
    0.82,                     !- Value Until Time 11
    17:00,                    !- Time 12
    0.88,                     !- Value Until Time 12
    18:00,                    !- Time 13
    0.96,                     !- Value Until Time 13
    19:00,                    !- Time 14
    1,                        !- Value Until Time 14
    20:00,                    !- Time 15
    0.96,                     !- Value Until Time 15
    21:00,                    !- Time 16
    0.94,                     !- Value Until Time 16
    22:00,                    !- Time 17
    0.92,                     !- Value Until Time 17
    23:00,                    !- Time 18
    0.88,                     !- Value Until Time 18
    24:00,                    !- Time 19
    0.82;                     !- Value Until Time 19

Schedule:Day:Interval,
    res refrig schedule allday10,    !- Name
    Fractional,               !- Schedule Type Limits Name
    No,                       !- Interpolate to Timestep
    01:00,                    !- Time 1
    0.67956204379562,         !- Value Until Time 1
    02:00,                    !- Time 2
    0.66257299270073,         !- Value Until Time 2
    03:00,                    !- Time 3
    0.645583941605839,        !- Value Until Time 3
    04:00,                    !- Time 4
    0.628594890510949,        !- Value Until Time 4
    06:00,                    !- Time 5
    0.611605839416058,        !- Value Until Time 5
    07:00,                    !- Time 6
    0.645583941605839,        !- Value Until Time 6
    08:00,                    !- Time 7
    0.67956204379562,         !- Value Until Time 7
    10:00,                    !- Time 8
    0.696551094890511,        !- Value Until Time 8
    12:00,                    !- Time 9
    0.67956204379562,         !- Value Until Time 9
    15:00,                    !- Time 10
    0.713540145985401,        !- Value Until Time 10
    16:00,                    !- Time 11
    0.696551094890511,        !- Value Until Time 11
    17:00,                    !- Time 12
    0.747518248175182,        !- Value Until Time 12
    18:00,                    !- Time 13
    0.815474452554744,        !- Value Until Time 13
    19:00,                    !- Time 14
    0.849452554744526,        !- Value Until Time 14
    20:00,                    !- Time 15
    0.815474452554744,        !- Value Until Time 15
    21:00,                    !- Time 16
    0.798485401459854,        !- Value Until Time 16
    22:00,                    !- Time 17
    0.781496350364963,        !- Value Until Time 17
    23:00,                    !- Time 18
    0.747518248175182,        !- Value Until Time 18
    24:00,                    !- Time 19
    0.696551094890511;        !- Value Until Time 19

Schedule:Day:Interval,
    res refrig schedule allday11,    !- Name
    Fractional,               !- Schedule Type Limits Name
    No,                       !- Interpolate to Timestep
    01:00,                    !- Time 1
    0.675182481751825,        !- Value Until Time 1
    02:00,                    !- Time 2
    0.658302919708029,        !- Value Until Time 2
    03:00,                    !- Time 3
    0.641423357664234,        !- Value Until Time 3
    04:00,                    !- Time 4
    0.624543795620438,        !- Value Until Time 4
    06:00,                    !- Time 5
    0.607664233576642,        !- Value Until Time 5
    07:00,                    !- Time 6
    0.641423357664234,        !- Value Until Time 6
    08:00,                    !- Time 7
    0.675182481751825,        !- Value Until Time 7
    10:00,                    !- Time 8
    0.69206204379562,         !- Value Until Time 8
    12:00,                    !- Time 9
    0.675182481751825,        !- Value Until Time 9
    15:00,                    !- Time 10
    0.708941605839416,        !- Value Until Time 10
    16:00,                    !- Time 11
    0.69206204379562,         !- Value Until Time 11
    17:00,                    !- Time 12
    0.742700729927007,        !- Value Until Time 12
    18:00,                    !- Time 13
    0.81021897810219,         !- Value Until Time 13
    19:00,                    !- Time 14
    0.843978102189781,        !- Value Until Time 14
    20:00,                    !- Time 15
    0.81021897810219,         !- Value Until Time 15
    21:00,                    !- Time 16
    0.793339416058394,        !- Value Until Time 16
    22:00,                    !- Time 17
    0.776459854014598,        !- Value Until Time 17
    23:00,                    !- Time 18
    0.742700729927007,        !- Value Until Time 18
    24:00,                    !- Time 19
    0.69206204379562;         !- Value Until Time 19

Schedule:Day:Interval,
    res refrig schedule allday12,    !- Name
    Fractional,               !- Schedule Type Limits Name
    No,                       !- Interpolate to Timestep
    01:00,                    !- Time 1
    0.610948905109489,        !- Value Until Time 1
    02:00,                    !- Time 2
    0.595675182481752,        !- Value Until Time 2
    03:00,                    !- Time 3
    0.580401459854014,        !- Value Until Time 3
    04:00,                    !- Time 4
    0.565127737226277,        !- Value Until Time 4
    06:00,                    !- Time 5
    0.54985401459854,         !- Value Until Time 5
    07:00,                    !- Time 6
    0.580401459854014,        !- Value Until Time 6
    08:00,                    !- Time 7
    0.610948905109489,        !- Value Until Time 7
    10:00,                    !- Time 8
    0.626222627737226,        !- Value Until Time 8
    12:00,                    !- Time 9
    0.610948905109489,        !- Value Until Time 9
    15:00,                    !- Time 10
    0.641496350364963,        !- Value Until Time 10
    16:00,                    !- Time 11
    0.626222627737226,        !- Value Until Time 11
    17:00,                    !- Time 12
    0.672043795620438,        !- Value Until Time 12
    18:00,                    !- Time 13
    0.733138686131387,        !- Value Until Time 13
    19:00,                    !- Time 14
    0.763686131386861,        !- Value Until Time 14
    20:00,                    !- Time 15
    0.733138686131387,        !- Value Until Time 15
    21:00,                    !- Time 16
    0.717864963503649,        !- Value Until Time 16
    22:00,                    !- Time 17
    0.702591240875912,        !- Value Until Time 17
    23:00,                    !- Time 18
    0.672043795620438,        !- Value Until Time 18
    24:00,                    !- Time 19
    0.626222627737226;        !- Value Until Time 19

Schedule:Day:Interval,